
.SUBCKT vnoise I O rel=0.1 fix=0.001
  RX I O 0 
.ENDS vnoise

.SUBCKT vclamp I O mn=0 mx=5
  BCK O 0 V = V(I) < mn ? mn : V(I) > mx ? mx : V(I)
.ends vclmp
