.INCLUDE ./include.lst

.SUBCKT imul A B O


.ENDS imul
